* NGSPICE file created from cordic_tt_top.ext - technology: sky130A

* Black-box entry subcircuit for sky130_fd_sc_hd__decap_8 abstract view
.subckt sky130_fd_sc_hd__decap_8 VGND VNB VPB VPWR
.ends

* Black-box entry subcircuit for sky130_ef_sc_hd__decap_12 abstract view
.subckt sky130_ef_sc_hd__decap_12 VGND VNB VPB VPWR
.ends

* Black-box entry subcircuit for sky130_fd_sc_hd__or2_1 abstract view
.subckt sky130_fd_sc_hd__or2_1 A B VGND VNB VPB VPWR X
.ends

* Black-box entry subcircuit for sky130_fd_sc_hd__inv_2 abstract view
.subckt sky130_fd_sc_hd__inv_2 A VGND VNB VPB VPWR Y
.ends

* Black-box entry subcircuit for sky130_fd_sc_hd__o211a_1 abstract view
.subckt sky130_fd_sc_hd__o211a_1 A1 A2 B1 C1 VGND VNB VPB VPWR X
.ends

* Black-box entry subcircuit for sky130_fd_sc_hd__decap_3 abstract view
.subckt sky130_fd_sc_hd__decap_3 VGND VNB VPB VPWR
.ends

* Black-box entry subcircuit for sky130_fd_sc_hd__decap_6 abstract view
.subckt sky130_fd_sc_hd__decap_6 VGND VNB VPB VPWR
.ends

* Black-box entry subcircuit for sky130_fd_sc_hd__a221o_1 abstract view
.subckt sky130_fd_sc_hd__a221o_1 A1 A2 B1 B2 C1 VGND VNB VPB VPWR X
.ends

* Black-box entry subcircuit for sky130_fd_sc_hd__xnor2_1 abstract view
.subckt sky130_fd_sc_hd__xnor2_1 A B VGND VNB VPB VPWR Y
.ends

* Black-box entry subcircuit for sky130_fd_sc_hd__fill_1 abstract view
.subckt sky130_fd_sc_hd__fill_1 VGND VNB VPB VPWR
.ends

* Black-box entry subcircuit for sky130_fd_sc_hd__o221a_1 abstract view
.subckt sky130_fd_sc_hd__o221a_1 A1 A2 B1 B2 C1 VGND VNB VPB VPWR X
.ends

* Black-box entry subcircuit for sky130_fd_sc_hd__and2_1 abstract view
.subckt sky130_fd_sc_hd__and2_1 A B VGND VNB VPB VPWR X
.ends

* Black-box entry subcircuit for sky130_fd_sc_hd__decap_4 abstract view
.subckt sky130_fd_sc_hd__decap_4 VGND VNB VPB VPWR
.ends

* Black-box entry subcircuit for sky130_fd_sc_hd__and2b_1 abstract view
.subckt sky130_fd_sc_hd__and2b_1 A_N B VGND VNB VPB VPWR X
.ends

* Black-box entry subcircuit for sky130_fd_sc_hd__clkbuf_4 abstract view
.subckt sky130_fd_sc_hd__clkbuf_4 A VGND VNB VPB VPWR X
.ends

* Black-box entry subcircuit for sky130_fd_sc_hd__a31o_1 abstract view
.subckt sky130_fd_sc_hd__a31o_1 A1 A2 A3 B1 VGND VNB VPB VPWR X
.ends

* Black-box entry subcircuit for sky130_fd_sc_hd__dlygate4sd3_1 abstract view
.subckt sky130_fd_sc_hd__dlygate4sd3_1 A VGND VNB VPB VPWR X
.ends

* Black-box entry subcircuit for sky130_fd_sc_hd__clkbuf_1 abstract view
.subckt sky130_fd_sc_hd__clkbuf_1 A VGND VNB VPB VPWR X
.ends

* Black-box entry subcircuit for sky130_fd_sc_hd__nand2_1 abstract view
.subckt sky130_fd_sc_hd__nand2_1 A B VGND VNB VPB VPWR Y
.ends

* Black-box entry subcircuit for sky130_fd_sc_hd__tapvpwrvgnd_1 abstract view
.subckt sky130_fd_sc_hd__tapvpwrvgnd_1 VGND VPWR
.ends

* Black-box entry subcircuit for sky130_fd_sc_hd__dfxtp_1 abstract view
.subckt sky130_fd_sc_hd__dfxtp_1 CLK D VGND VNB VPB VPWR Q
.ends

* Black-box entry subcircuit for sky130_fd_sc_hd__fill_2 abstract view
.subckt sky130_fd_sc_hd__fill_2 VGND VNB VPB VPWR
.ends

* Black-box entry subcircuit for sky130_fd_sc_hd__o21a_1 abstract view
.subckt sky130_fd_sc_hd__o21a_1 A1 A2 B1 VGND VNB VPB VPWR X
.ends

* Black-box entry subcircuit for sky130_fd_sc_hd__or2b_1 abstract view
.subckt sky130_fd_sc_hd__or2b_1 A B_N VGND VNB VPB VPWR X
.ends

* Black-box entry subcircuit for sky130_fd_sc_hd__and2_4 abstract view
.subckt sky130_fd_sc_hd__and2_4 A B VGND VNB VPB VPWR X
.ends

* Black-box entry subcircuit for sky130_fd_sc_hd__clkbuf_16 abstract view
.subckt sky130_fd_sc_hd__clkbuf_16 A VGND VNB VPB VPWR X
.ends

* Black-box entry subcircuit for sky130_fd_sc_hd__o21ai_1 abstract view
.subckt sky130_fd_sc_hd__o21ai_1 A1 A2 B1 VGND VNB VPB VPWR Y
.ends

* Black-box entry subcircuit for sky130_fd_sc_hd__dfxtp_2 abstract view
.subckt sky130_fd_sc_hd__dfxtp_2 CLK D VGND VNB VPB VPWR Q
.ends

* Black-box entry subcircuit for sky130_fd_sc_hd__nor2_1 abstract view
.subckt sky130_fd_sc_hd__nor2_1 A B VGND VNB VPB VPWR Y
.ends

* Black-box entry subcircuit for sky130_fd_sc_hd__a21bo_1 abstract view
.subckt sky130_fd_sc_hd__a21bo_1 A1 A2 B1_N VGND VNB VPB VPWR X
.ends

* Black-box entry subcircuit for sky130_fd_sc_hd__xor2_1 abstract view
.subckt sky130_fd_sc_hd__xor2_1 A B VGND VNB VPB VPWR X
.ends

* Black-box entry subcircuit for sky130_fd_sc_hd__buf_1 abstract view
.subckt sky130_fd_sc_hd__buf_1 A VGND VNB VPB VPWR X
.ends

* Black-box entry subcircuit for sky130_fd_sc_hd__a21o_1 abstract view
.subckt sky130_fd_sc_hd__a21o_1 A1 A2 B1 VGND VNB VPB VPWR X
.ends

* Black-box entry subcircuit for sky130_fd_sc_hd__and3_1 abstract view
.subckt sky130_fd_sc_hd__and3_1 A B C VGND VNB VPB VPWR X
.ends

* Black-box entry subcircuit for sky130_fd_sc_hd__o31a_1 abstract view
.subckt sky130_fd_sc_hd__o31a_1 A1 A2 A3 B1 VGND VNB VPB VPWR X
.ends

* Black-box entry subcircuit for sky130_fd_sc_hd__a21oi_1 abstract view
.subckt sky130_fd_sc_hd__a21oi_1 A1 A2 B1 VGND VNB VPB VPWR Y
.ends

* Black-box entry subcircuit for sky130_fd_sc_hd__o21ba_1 abstract view
.subckt sky130_fd_sc_hd__o21ba_1 A1 A2 B1_N VGND VNB VPB VPWR X
.ends

* Black-box entry subcircuit for sky130_fd_sc_hd__mux2_1 abstract view
.subckt sky130_fd_sc_hd__mux2_1 A0 A1 S VGND VNB VPB VPWR X
.ends

* Black-box entry subcircuit for sky130_fd_sc_hd__buf_6 abstract view
.subckt sky130_fd_sc_hd__buf_6 A VGND VNB VPB VPWR X
.ends

* Black-box entry subcircuit for sky130_fd_sc_hd__a31oi_1 abstract view
.subckt sky130_fd_sc_hd__a31oi_1 A1 A2 A3 B1 VGND VNB VPB VPWR Y
.ends

* Black-box entry subcircuit for sky130_fd_sc_hd__a32o_1 abstract view
.subckt sky130_fd_sc_hd__a32o_1 A1 A2 A3 B1 B2 VGND VNB VPB VPWR X
.ends

* Black-box entry subcircuit for sky130_fd_sc_hd__or3_1 abstract view
.subckt sky130_fd_sc_hd__or3_1 A B C VGND VNB VPB VPWR X
.ends

* Black-box entry subcircuit for sky130_fd_sc_hd__o41a_1 abstract view
.subckt sky130_fd_sc_hd__o41a_1 A1 A2 A3 A4 B1 VGND VNB VPB VPWR X
.ends

* Black-box entry subcircuit for sky130_fd_sc_hd__nor2_4 abstract view
.subckt sky130_fd_sc_hd__nor2_4 A B VGND VNB VPB VPWR Y
.ends

* Black-box entry subcircuit for sky130_fd_sc_hd__a2bb2o_1 abstract view
.subckt sky130_fd_sc_hd__a2bb2o_1 A1_N A2_N B1 B2 VGND VNB VPB VPWR X
.ends

* Black-box entry subcircuit for sky130_fd_sc_hd__o21ai_2 abstract view
.subckt sky130_fd_sc_hd__o21ai_2 A1 A2 B1 VGND VNB VPB VPWR Y
.ends

* Black-box entry subcircuit for sky130_fd_sc_hd__or4b_1 abstract view
.subckt sky130_fd_sc_hd__or4b_1 A B C D_N VGND VNB VPB VPWR X
.ends

* Black-box entry subcircuit for sky130_fd_sc_hd__xnor2_2 abstract view
.subckt sky130_fd_sc_hd__xnor2_2 A B VGND VNB VPB VPWR Y
.ends

* Black-box entry subcircuit for sky130_fd_sc_hd__or4_1 abstract view
.subckt sky130_fd_sc_hd__or4_1 A B C D VGND VNB VPB VPWR X
.ends

* Black-box entry subcircuit for sky130_fd_sc_hd__a311o_1 abstract view
.subckt sky130_fd_sc_hd__a311o_1 A1 A2 A3 B1 C1 VGND VNB VPB VPWR X
.ends

* Black-box entry subcircuit for sky130_fd_sc_hd__a21oi_2 abstract view
.subckt sky130_fd_sc_hd__a21oi_2 A1 A2 B1 VGND VNB VPB VPWR Y
.ends

* Black-box entry subcircuit for sky130_fd_sc_hd__o311a_1 abstract view
.subckt sky130_fd_sc_hd__o311a_1 A1 A2 A3 B1 C1 VGND VNB VPB VPWR X
.ends

* Black-box entry subcircuit for sky130_fd_sc_hd__buf_2 abstract view
.subckt sky130_fd_sc_hd__buf_2 A VGND VNB VPB VPWR X
.ends

* Black-box entry subcircuit for sky130_fd_sc_hd__xor2_2 abstract view
.subckt sky130_fd_sc_hd__xor2_2 A B VGND VNB VPB VPWR X
.ends

* Black-box entry subcircuit for sky130_fd_sc_hd__and3b_1 abstract view
.subckt sky130_fd_sc_hd__and3b_1 A_N B C VGND VNB VPB VPWR X
.ends

* Black-box entry subcircuit for sky130_fd_sc_hd__and4_1 abstract view
.subckt sky130_fd_sc_hd__and4_1 A B C D VGND VNB VPB VPWR X
.ends

* Black-box entry subcircuit for sky130_fd_sc_hd__or3b_1 abstract view
.subckt sky130_fd_sc_hd__or3b_1 A B C_N VGND VNB VPB VPWR X
.ends

* Black-box entry subcircuit for sky130_fd_sc_hd__or4_4 abstract view
.subckt sky130_fd_sc_hd__or4_4 A B C D VGND VNB VPB VPWR X
.ends

* Black-box entry subcircuit for sky130_fd_sc_hd__a211oi_1 abstract view
.subckt sky130_fd_sc_hd__a211oi_1 A1 A2 B1 C1 VGND VNB VPB VPWR Y
.ends

* Black-box entry subcircuit for sky130_fd_sc_hd__nand3_1 abstract view
.subckt sky130_fd_sc_hd__nand3_1 A B C VGND VNB VPB VPWR Y
.ends

* Black-box entry subcircuit for sky130_fd_sc_hd__mux2_2 abstract view
.subckt sky130_fd_sc_hd__mux2_2 A0 A1 S VGND VNB VPB VPWR X
.ends

* Black-box entry subcircuit for sky130_fd_sc_hd__or3_2 abstract view
.subckt sky130_fd_sc_hd__or3_2 A B C VGND VNB VPB VPWR X
.ends

* Black-box entry subcircuit for sky130_fd_sc_hd__or4_2 abstract view
.subckt sky130_fd_sc_hd__or4_2 A B C D VGND VNB VPB VPWR X
.ends

* Black-box entry subcircuit for sky130_fd_sc_hd__a22o_1 abstract view
.subckt sky130_fd_sc_hd__a22o_1 A1 A2 B1 B2 VGND VNB VPB VPWR X
.ends

* Black-box entry subcircuit for sky130_fd_sc_hd__and4bb_1 abstract view
.subckt sky130_fd_sc_hd__and4bb_1 A_N B_N C D VGND VNB VPB VPWR X
.ends

* Black-box entry subcircuit for sky130_fd_sc_hd__a2111o_1 abstract view
.subckt sky130_fd_sc_hd__a2111o_1 A1 A2 B1 C1 D1 VGND VNB VPB VPWR X
.ends

* Black-box entry subcircuit for sky130_fd_sc_hd__o22a_1 abstract view
.subckt sky130_fd_sc_hd__o22a_1 A1 A2 B1 B2 VGND VNB VPB VPWR X
.ends

* Black-box entry subcircuit for sky130_fd_sc_hd__o31ai_2 abstract view
.subckt sky130_fd_sc_hd__o31ai_2 A1 A2 A3 B1 VGND VNB VPB VPWR Y
.ends

* Black-box entry subcircuit for sky130_fd_sc_hd__a41o_1 abstract view
.subckt sky130_fd_sc_hd__a41o_1 A1 A2 A3 A4 B1 VGND VNB VPB VPWR X
.ends

* Black-box entry subcircuit for sky130_fd_sc_hd__a21boi_1 abstract view
.subckt sky130_fd_sc_hd__a21boi_1 A1 A2 B1_N VGND VNB VPB VPWR Y
.ends

* Black-box entry subcircuit for sky130_fd_sc_hd__clkbuf_8 abstract view
.subckt sky130_fd_sc_hd__clkbuf_8 A VGND VNB VPB VPWR X
.ends

* Black-box entry subcircuit for sky130_fd_sc_hd__o21bai_2 abstract view
.subckt sky130_fd_sc_hd__o21bai_2 A1 A2 B1_N VGND VNB VPB VPWR Y
.ends

* Black-box entry subcircuit for sky130_fd_sc_hd__or2_4 abstract view
.subckt sky130_fd_sc_hd__or2_4 A B VGND VNB VPB VPWR X
.ends

* Black-box entry subcircuit for sky130_fd_sc_hd__nand3_2 abstract view
.subckt sky130_fd_sc_hd__nand3_2 A B C VGND VNB VPB VPWR Y
.ends

* Black-box entry subcircuit for sky130_fd_sc_hd__buf_4 abstract view
.subckt sky130_fd_sc_hd__buf_4 A VGND VNB VPB VPWR X
.ends

* Black-box entry subcircuit for sky130_fd_sc_hd__nand2_2 abstract view
.subckt sky130_fd_sc_hd__nand2_2 A B VGND VNB VPB VPWR Y
.ends

* Black-box entry subcircuit for sky130_fd_sc_hd__o31ai_1 abstract view
.subckt sky130_fd_sc_hd__o31ai_1 A1 A2 A3 B1 VGND VNB VPB VPWR Y
.ends

* Black-box entry subcircuit for sky130_fd_sc_hd__nand2b_2 abstract view
.subckt sky130_fd_sc_hd__nand2b_2 A_N B VGND VNB VPB VPWR Y
.ends

* Black-box entry subcircuit for sky130_fd_sc_hd__o41ai_2 abstract view
.subckt sky130_fd_sc_hd__o41ai_2 A1 A2 A3 A4 B1 VGND VNB VPB VPWR Y
.ends

* Black-box entry subcircuit for sky130_fd_sc_hd__o2bb2a_1 abstract view
.subckt sky130_fd_sc_hd__o2bb2a_1 A1_N A2_N B1 B2 VGND VNB VPB VPWR X
.ends

* Black-box entry subcircuit for sky130_fd_sc_hd__mux2_4 abstract view
.subckt sky130_fd_sc_hd__mux2_4 A0 A1 S VGND VNB VPB VPWR X
.ends

* Black-box entry subcircuit for sky130_fd_sc_hd__and3_2 abstract view
.subckt sky130_fd_sc_hd__and3_2 A B C VGND VNB VPB VPWR X
.ends

* Black-box entry subcircuit for sky130_fd_sc_hd__or3_4 abstract view
.subckt sky130_fd_sc_hd__or3_4 A B C VGND VNB VPB VPWR X
.ends

* Black-box entry subcircuit for sky130_fd_sc_hd__dfxtp_4 abstract view
.subckt sky130_fd_sc_hd__dfxtp_4 CLK D VGND VNB VPB VPWR Q
.ends

* Black-box entry subcircuit for sky130_fd_sc_hd__a22oi_2 abstract view
.subckt sky130_fd_sc_hd__a22oi_2 A1 A2 B1 B2 VGND VNB VPB VPWR Y
.ends

* Black-box entry subcircuit for sky130_fd_sc_hd__a21boi_2 abstract view
.subckt sky130_fd_sc_hd__a21boi_2 A1 A2 B1_N VGND VNB VPB VPWR Y
.ends

* Black-box entry subcircuit for sky130_fd_sc_hd__nor4_1 abstract view
.subckt sky130_fd_sc_hd__nor4_1 A B C D VGND VNB VPB VPWR Y
.ends

* Black-box entry subcircuit for sky130_fd_sc_hd__o221ai_4 abstract view
.subckt sky130_fd_sc_hd__o221ai_4 A1 A2 B1 B2 C1 VGND VNB VPB VPWR Y
.ends

* Black-box entry subcircuit for sky130_fd_sc_hd__or4bb_1 abstract view
.subckt sky130_fd_sc_hd__or4bb_1 A B C_N D_N VGND VNB VPB VPWR X
.ends

* Black-box entry subcircuit for sky130_fd_sc_hd__a21oi_4 abstract view
.subckt sky130_fd_sc_hd__a21oi_4 A1 A2 B1 VGND VNB VPB VPWR Y
.ends

* Black-box entry subcircuit for sky130_fd_sc_hd__nor2_2 abstract view
.subckt sky130_fd_sc_hd__nor2_2 A B VGND VNB VPB VPWR Y
.ends

* Black-box entry subcircuit for sky130_fd_sc_hd__clkdlybuf4s25_1 abstract view
.subckt sky130_fd_sc_hd__clkdlybuf4s25_1 A VGND VNB VPB VPWR X
.ends

* Black-box entry subcircuit for sky130_fd_sc_hd__a211o_1 abstract view
.subckt sky130_fd_sc_hd__a211o_1 A1 A2 B1 C1 VGND VNB VPB VPWR X
.ends

* Black-box entry subcircuit for sky130_fd_sc_hd__a31oi_4 abstract view
.subckt sky130_fd_sc_hd__a31oi_4 A1 A2 A3 B1 VGND VNB VPB VPWR Y
.ends

* Black-box entry subcircuit for sky130_fd_sc_hd__nor3_1 abstract view
.subckt sky130_fd_sc_hd__nor3_1 A B C VGND VNB VPB VPWR Y
.ends

* Black-box entry subcircuit for sky130_fd_sc_hd__nor3_2 abstract view
.subckt sky130_fd_sc_hd__nor3_2 A B C VGND VNB VPB VPWR Y
.ends

* Black-box entry subcircuit for sky130_fd_sc_hd__o2111a_1 abstract view
.subckt sky130_fd_sc_hd__o2111a_1 A1 A2 B1 C1 D1 VGND VNB VPB VPWR X
.ends

* Black-box entry subcircuit for sky130_fd_sc_hd__xnor2_4 abstract view
.subckt sky130_fd_sc_hd__xnor2_4 A B VGND VNB VPB VPWR Y
.ends

* Black-box entry subcircuit for sky130_fd_sc_hd__a22oi_1 abstract view
.subckt sky130_fd_sc_hd__a22oi_1 A1 A2 B1 B2 VGND VNB VPB VPWR Y
.ends

* Black-box entry subcircuit for sky130_fd_sc_hd__o32a_1 abstract view
.subckt sky130_fd_sc_hd__o32a_1 A1 A2 A3 B1 B2 VGND VNB VPB VPWR X
.ends

* Black-box entry subcircuit for sky130_fd_sc_hd__o221ai_1 abstract view
.subckt sky130_fd_sc_hd__o221ai_1 A1 A2 B1 B2 C1 VGND VNB VPB VPWR Y
.ends

* Black-box entry subcircuit for sky130_fd_sc_hd__clkbuf_2 abstract view
.subckt sky130_fd_sc_hd__clkbuf_2 A VGND VNB VPB VPWR X
.ends

* Black-box entry subcircuit for sky130_fd_sc_hd__o211ai_1 abstract view
.subckt sky130_fd_sc_hd__o211ai_1 A1 A2 B1 C1 VGND VNB VPB VPWR Y
.ends

* Black-box entry subcircuit for sky130_fd_sc_hd__nand4_1 abstract view
.subckt sky130_fd_sc_hd__nand4_1 A B C D VGND VNB VPB VPWR Y
.ends

* Black-box entry subcircuit for sky130_fd_sc_hd__or2b_2 abstract view
.subckt sky130_fd_sc_hd__or2b_2 A B_N VGND VNB VPB VPWR X
.ends

* Black-box entry subcircuit for sky130_fd_sc_hd__o41ai_4 abstract view
.subckt sky130_fd_sc_hd__o41ai_4 A1 A2 A3 A4 B1 VGND VNB VPB VPWR Y
.ends

* Black-box entry subcircuit for sky130_fd_sc_hd__o21bai_1 abstract view
.subckt sky130_fd_sc_hd__o21bai_1 A1 A2 B1_N VGND VNB VPB VPWR Y
.ends

* Black-box entry subcircuit for sky130_fd_sc_hd__o2111ai_2 abstract view
.subckt sky130_fd_sc_hd__o2111ai_2 A1 A2 B1 C1 D1 VGND VNB VPB VPWR Y
.ends

* Black-box entry subcircuit for sky130_fd_sc_hd__o2111ai_4 abstract view
.subckt sky130_fd_sc_hd__o2111ai_4 A1 A2 B1 C1 D1 VGND VNB VPB VPWR Y
.ends

* Black-box entry subcircuit for sky130_fd_sc_hd__or2_2 abstract view
.subckt sky130_fd_sc_hd__or2_2 A B VGND VNB VPB VPWR X
.ends

* Black-box entry subcircuit for sky130_fd_sc_hd__nand4_2 abstract view
.subckt sky130_fd_sc_hd__nand4_2 A B C D VGND VNB VPB VPWR Y
.ends

* Black-box entry subcircuit for sky130_fd_sc_hd__nor3b_1 abstract view
.subckt sky130_fd_sc_hd__nor3b_1 A B C_N VGND VNB VPB VPWR Y
.ends

* Black-box entry subcircuit for sky130_fd_sc_hd__a31oi_2 abstract view
.subckt sky130_fd_sc_hd__a31oi_2 A1 A2 A3 B1 VGND VNB VPB VPWR Y
.ends

* Black-box entry subcircuit for sky130_fd_sc_hd__o221ai_2 abstract view
.subckt sky130_fd_sc_hd__o221ai_2 A1 A2 B1 B2 C1 VGND VNB VPB VPWR Y
.ends

* Black-box entry subcircuit for sky130_fd_sc_hd__a41oi_2 abstract view
.subckt sky130_fd_sc_hd__a41oi_2 A1 A2 A3 A4 B1 VGND VNB VPB VPWR Y
.ends

* Black-box entry subcircuit for sky130_fd_sc_hd__o41a_2 abstract view
.subckt sky130_fd_sc_hd__o41a_2 A1 A2 A3 A4 B1 VGND VNB VPB VPWR X
.ends

* Black-box entry subcircuit for sky130_fd_sc_hd__xor2_4 abstract view
.subckt sky130_fd_sc_hd__xor2_4 A B VGND VNB VPB VPWR X
.ends

* Black-box entry subcircuit for sky130_fd_sc_hd__or4b_4 abstract view
.subckt sky130_fd_sc_hd__or4b_4 A B C D_N VGND VNB VPB VPWR X
.ends

* Black-box entry subcircuit for sky130_fd_sc_hd__o31a_2 abstract view
.subckt sky130_fd_sc_hd__o31a_2 A1 A2 A3 B1 VGND VNB VPB VPWR X
.ends

* Black-box entry subcircuit for sky130_fd_sc_hd__o21ai_4 abstract view
.subckt sky130_fd_sc_hd__o21ai_4 A1 A2 B1 VGND VNB VPB VPWR Y
.ends

* Black-box entry subcircuit for sky130_fd_sc_hd__a41oi_1 abstract view
.subckt sky130_fd_sc_hd__a41oi_1 A1 A2 A3 A4 B1 VGND VNB VPB VPWR Y
.ends

* Black-box entry subcircuit for sky130_fd_sc_hd__a221o_2 abstract view
.subckt sky130_fd_sc_hd__a221o_2 A1 A2 B1 B2 C1 VGND VNB VPB VPWR X
.ends

* Black-box entry subcircuit for sky130_fd_sc_hd__and2_2 abstract view
.subckt sky130_fd_sc_hd__and2_2 A B VGND VNB VPB VPWR X
.ends

* Black-box entry subcircuit for sky130_fd_sc_hd__clkinv_4 abstract view
.subckt sky130_fd_sc_hd__clkinv_4 A VGND VNB VPB VPWR Y
.ends

* Black-box entry subcircuit for sky130_fd_sc_hd__o22ai_1 abstract view
.subckt sky130_fd_sc_hd__o22ai_1 A1 A2 B1 B2 VGND VNB VPB VPWR Y
.ends

* Black-box entry subcircuit for sky130_fd_sc_hd__nand3b_1 abstract view
.subckt sky130_fd_sc_hd__nand3b_1 A_N B C VGND VNB VPB VPWR Y
.ends

* Black-box entry subcircuit for sky130_fd_sc_hd__a32oi_4 abstract view
.subckt sky130_fd_sc_hd__a32oi_4 A1 A2 A3 B1 B2 VGND VNB VPB VPWR Y
.ends

* Black-box entry subcircuit for sky130_fd_sc_hd__o211ai_2 abstract view
.subckt sky130_fd_sc_hd__o211ai_2 A1 A2 B1 C1 VGND VNB VPB VPWR Y
.ends

* Black-box entry subcircuit for sky130_fd_sc_hd__o2111ai_1 abstract view
.subckt sky130_fd_sc_hd__o2111ai_1 A1 A2 B1 C1 D1 VGND VNB VPB VPWR Y
.ends

* Black-box entry subcircuit for sky130_fd_sc_hd__a41oi_4 abstract view
.subckt sky130_fd_sc_hd__a41oi_4 A1 A2 A3 A4 B1 VGND VNB VPB VPWR Y
.ends

* Black-box entry subcircuit for sky130_fd_sc_hd__dlymetal6s2s_1 abstract view
.subckt sky130_fd_sc_hd__dlymetal6s2s_1 A VGND VNB VPB VPWR X
.ends

* Black-box entry subcircuit for sky130_fd_sc_hd__a31o_2 abstract view
.subckt sky130_fd_sc_hd__a31o_2 A1 A2 A3 B1 VGND VNB VPB VPWR X
.ends

* Black-box entry subcircuit for sky130_fd_sc_hd__o41ai_1 abstract view
.subckt sky130_fd_sc_hd__o41ai_1 A1 A2 A3 A4 B1 VGND VNB VPB VPWR Y
.ends

* Black-box entry subcircuit for sky130_fd_sc_hd__nor4_2 abstract view
.subckt sky130_fd_sc_hd__nor4_2 A B C D VGND VNB VPB VPWR Y
.ends

* Black-box entry subcircuit for sky130_fd_sc_hd__nand2b_1 abstract view
.subckt sky130_fd_sc_hd__nand2b_1 A_N B VGND VNB VPB VPWR Y
.ends

* Black-box entry subcircuit for sky130_fd_sc_hd__dlygate4sd1_1 abstract view
.subckt sky130_fd_sc_hd__dlygate4sd1_1 A VGND VNB VPB VPWR X
.ends

* Black-box entry subcircuit for sky130_fd_sc_hd__and4b_1 abstract view
.subckt sky130_fd_sc_hd__and4b_1 A_N B C D VGND VNB VPB VPWR X
.ends

* Black-box entry subcircuit for sky130_fd_sc_hd__nand2_4 abstract view
.subckt sky130_fd_sc_hd__nand2_4 A B VGND VNB VPB VPWR Y
.ends

* Black-box entry subcircuit for sky130_fd_sc_hd__nor2b_1 abstract view
.subckt sky130_fd_sc_hd__nor2b_1 A B_N VGND VNB VPB VPWR Y
.ends

* Black-box entry subcircuit for sky130_fd_sc_hd__o211ai_4 abstract view
.subckt sky130_fd_sc_hd__o211ai_4 A1 A2 B1 C1 VGND VNB VPB VPWR Y
.ends

* Black-box entry subcircuit for sky130_fd_sc_hd__or2b_4 abstract view
.subckt sky130_fd_sc_hd__or2b_4 A B_N VGND VNB VPB VPWR X
.ends

.subckt cordic_tt_top VGND VPWR i_clk i_rst_n i_valid_in in_alpha[0] in_alpha[10]
+ in_alpha[11] in_alpha[12] in_alpha[13] in_alpha[14] in_alpha[15] in_alpha[16] in_alpha[17]
+ in_alpha[1] in_alpha[2] in_alpha[3] in_alpha[4] in_alpha[5] in_alpha[6] in_alpha[7]
+ in_alpha[8] in_alpha[9] in_x[0] in_x[10] in_x[11] in_x[12] in_x[13] in_x[14] in_x[15]
+ in_x[16] in_x[17] in_x[1] in_x[2] in_x[3] in_x[4] in_x[5] in_x[6] in_x[7] in_x[8]
+ in_x[9] in_y[0] in_y[10] in_y[11] in_y[12] in_y[13] in_y[14] in_y[15] in_y[16] in_y[17]
+ in_y[1] in_y[2] in_y[3] in_y[4] in_y[5] in_y[6] in_y[7] in_y[8] in_y[9] o_valid_out
+ out_alpha[0] out_alpha[10] out_alpha[11] out_alpha[12] out_alpha[13] out_alpha[14]
+ out_alpha[15] out_alpha[16] out_alpha[17] out_alpha[1] out_alpha[2] out_alpha[3]
+ out_alpha[4] out_alpha[5] out_alpha[6] out_alpha[7] out_alpha[8] out_alpha[9] out_costheta[0]
+ out_costheta[10] out_costheta[11] out_costheta[12] out_costheta[13] out_costheta[14]
+ out_costheta[15] out_costheta[16] out_costheta[17] out_costheta[1] out_costheta[2]
+ out_costheta[3] out_costheta[4] out_costheta[5] out_costheta[6] out_costheta[7]
+ out_costheta[8] out_costheta[9] out_sintheta[0] out_sintheta[10] out_sintheta[11]
+ out_sintheta[12] out_sintheta[13] out_sintheta[14] out_sintheta[15] out_sintheta[16]
+ out_sintheta[17] out_sintheta[1] out_sintheta[2] out_sintheta[3] out_sintheta[4]
+ out_sintheta[5] out_sintheta[6] out_sintheta[7] out_sintheta[8] out_sintheta[9]
XFILLER_0_94_66 VGND VGND VPWR VPWR sky130_fd_sc_hd__decap_8
XFILLER_0_118_40 VGND VGND VPWR VPWR sky130_ef_sc_hd__decap_12
X_09671_ CORDIC_PE\[2\].genblk1.genblk1.cordic_engine_inst.out_x\[7\] _03080_ VGND
+ VGND VPWR VPWR _03082_ sky130_fd_sc_hd__or2_1
X_08622_ CORDIC_PE\[1\].genblk1.genblk1.cordic_engine_inst.out_x\[2\] VGND VGND VPWR
+ VPWR _02152_ sky130_fd_sc_hd__inv_2
X_08553_ _01867_ _02089_ _02090_ _01552_ VGND VGND VPWR VPWR _00226_ sky130_fd_sc_hd__o211a_1
XFILLER_0_89_483 VGND VGND VPWR VPWR sky130_fd_sc_hd__decap_3
XFILLER_0_76_133 VGND VGND VPWR VPWR sky130_fd_sc_hd__decap_6
X_07504_ CORDIC_PE\[14\].genblk1.genblk1.cordic_engine_inst.out_y\[15\] _01122_ _01156_
+ _01046_ _01072_ VGND VGND VPWR VPWR _01221_ sky130_fd_sc_hd__a221o_1
X_08484_ _02025_ _02026_ VGND VGND VPWR VPWR _02027_ sky130_fd_sc_hd__xnor2_1
XFILLER_0_119_213 VGND VGND VPWR VPWR sky130_fd_sc_hd__decap_8
XFILLER_0_147_533 VGND VGND VPWR VPWR sky130_fd_sc_hd__fill_1
XFILLER_0_58_881 VGND VGND VPWR VPWR sky130_ef_sc_hd__decap_12
X_07435_ CORDIC_PE\[14\].genblk1.genblk1.cordic_engine_inst.out_y\[16\] _01159_ _01164_
+ _01168_ _01059_ VGND VGND VPWR VPWR _01169_ sky130_fd_sc_hd__o221a_1
XFILLER_0_92_648 VGND VGND VPWR VPWR sky130_ef_sc_hd__decap_12
XFILLER_0_135_706 VGND VGND VPWR VPWR sky130_fd_sc_hd__decap_6
XFILLER_0_57_391 VGND VGND VPWR VPWR sky130_fd_sc_hd__fill_1
XFILLER_0_45_542 VGND VGND VPWR VPWR sky130_ef_sc_hd__decap_12
XFILLER_0_119_279 VGND VGND VPWR VPWR sky130_fd_sc_hd__fill_1
X_07366_ _01105_ _01106_ VGND VGND VPWR VPWR _01107_ sky130_fd_sc_hd__and2_1
XFILLER_0_91_169 VGND VGND VPWR VPWR sky130_fd_sc_hd__decap_4
XFILLER_0_18_789 VGND VGND VPWR VPWR sky130_ef_sc_hd__decap_12
XFILLER_0_60_501 VGND VGND VPWR VPWR sky130_fd_sc_hd__fill_1
X_09105_ CORDIC_PE\[1\].genblk1.genblk1.cordic_engine_inst.out_alpha\[17\] CORDIC_PE\[1\].genblk1.genblk1.cordic_engine_inst.out_y\[2\]
+ VGND VGND VPWR VPWR _02579_ sky130_fd_sc_hd__and2b_1
X_07297_ _01015_ VGND VGND VPWR VPWR _01044_ sky130_fd_sc_hd__clkbuf_4
X_09036_ _02513_ _02508_ _02516_ _02369_ VGND VGND VPWR VPWR _02518_ sky130_fd_sc_hd__a31o_1
XFILLER_0_32_269 VGND VGND VPWR VPWR sky130_fd_sc_hd__fill_1
Xhold340 _00825_ VGND VGND VPWR VPWR net457 sky130_fd_sc_hd__dlygate4sd3_1
XFILLER_0_103_669 VGND VGND VPWR VPWR sky130_fd_sc_hd__decap_3
XFILLER_0_13_494 VGND VGND VPWR VPWR sky130_fd_sc_hd__decap_8
Xhold351 _00839_ VGND VGND VPWR VPWR net468 sky130_fd_sc_hd__dlygate4sd3_1
XFILLER_0_40_280 VGND VGND VPWR VPWR sky130_fd_sc_hd__decap_8
Xhold362 CORDIC_PE\[7\].genblk1.genblk1.cordic_engine_inst.out_y\[5\] VGND VGND VPWR
+ VPWR net479 sky130_fd_sc_hd__dlygate4sd3_1
XFILLER_0_7_81 VGND VGND VPWR VPWR sky130_ef_sc_hd__decap_12
XFILLER_0_102_168 VGND VGND VPWR VPWR sky130_ef_sc_hd__decap_12
Xhold373 CORDIC_PE\[13\].genblk1.genblk1.cordic_engine_inst.out_alpha\[7\] VGND VGND
+ VPWR VPWR net490 sky130_fd_sc_hd__dlygate4sd3_1
Xhold384 CORDIC_PE\[5\].genblk1.genblk1.cordic_engine_inst.out_alpha\[13\] VGND VGND
+ VPWR VPWR net501 sky130_fd_sc_hd__dlygate4sd3_1
Xhold395 CORDIC_PE\[12\].genblk1.genblk1.cordic_engine_inst.out_y\[4\] VGND VGND VPWR
+ VPWR net512 sky130_fd_sc_hd__dlygate4sd3_1
X_09938_ _03313_ VGND VGND VPWR VPWR _00388_ sky130_fd_sc_hd__clkbuf_1
X_09869_ _03237_ net532 _03251_ _03254_ _03013_ VGND VGND VPWR VPWR _00378_ sky130_fd_sc_hd__o221a_1
XFILLER_0_99_225 VGND VGND VPWR VPWR sky130_fd_sc_hd__decap_8
XFILLER_0_99_236 VGND VGND VPWR VPWR sky130_fd_sc_hd__decap_4
X_11900_ CORDIC_PE\[7\].genblk1.genblk1.cordic_engine_inst.out_x\[5\] _05027_ VGND
+ VGND VPWR VPWR _05028_ sky130_fd_sc_hd__nand2_1
XFILLER_0_99_258 VGND VGND VPWR VPWR sky130_ef_sc_hd__decap_12
X_12880_ _05853_ VGND VGND VPWR VPWR _05871_ sky130_fd_sc_hd__clkbuf_4
XTAP_2501 VGND VPWR sky130_fd_sc_hd__tapvpwrvgnd_1
XTAP_2512 VGND VPWR sky130_fd_sc_hd__tapvpwrvgnd_1
XTAP_2523 VGND VPWR sky130_fd_sc_hd__tapvpwrvgnd_1
X_11831_ CORDIC_PE\[7\].genblk1.genblk1.cordic_engine_inst.out_y\[16\] _04930_ VGND
+ VGND VPWR VPWR _04966_ sky130_fd_sc_hd__or2_1
XTAP_2534 VGND VPWR sky130_fd_sc_hd__tapvpwrvgnd_1
XTAP_1800 VGND VPWR sky130_fd_sc_hd__tapvpwrvgnd_1
XTAP_2545 VGND VPWR sky130_fd_sc_hd__tapvpwrvgnd_1
XTAP_1811 VGND VPWR sky130_fd_sc_hd__tapvpwrvgnd_1
XTAP_2556 VGND VPWR sky130_fd_sc_hd__tapvpwrvgnd_1
XFILLER_0_68_645 VGND VGND VPWR VPWR sky130_ef_sc_hd__decap_12
XTAP_1822 VGND VPWR sky130_fd_sc_hd__tapvpwrvgnd_1
XTAP_2567 VGND VPWR sky130_fd_sc_hd__tapvpwrvgnd_1
XFILLER_0_56_807 VGND VGND VPWR VPWR sky130_fd_sc_hd__decap_4
XTAP_1833 VGND VPWR sky130_fd_sc_hd__tapvpwrvgnd_1
XFILLER_0_95_442 VGND VGND VPWR VPWR sky130_fd_sc_hd__fill_1
XTAP_2578 VGND VPWR sky130_fd_sc_hd__tapvpwrvgnd_1
X_14550_ clknet_leaf_35_i_clk _00096_ VGND VGND VPWR VPWR diff1\[9\] sky130_fd_sc_hd__dfxtp_1
X_11762_ _04795_ _04904_ VGND VGND VPWR VPWR _04905_ sky130_fd_sc_hd__nand2_1
XTAP_1844 VGND VPWR sky130_fd_sc_hd__tapvpwrvgnd_1
XTAP_2589 VGND VPWR sky130_fd_sc_hd__tapvpwrvgnd_1
XTAP_1855 VGND VPWR sky130_fd_sc_hd__tapvpwrvgnd_1
XFILLER_0_67_166 VGND VGND VPWR VPWR sky130_fd_sc_hd__fill_2
XTAP_1866 VGND VPWR sky130_fd_sc_hd__tapvpwrvgnd_1
XFILLER_0_138_533 VGND VGND VPWR VPWR sky130_ef_sc_hd__decap_12
X_13501_ _06211_ CORDIC_PE\[12\].genblk1.genblk1.cordic_engine_inst.out_y\[15\] _06407_
+ _06408_ _06285_ VGND VGND VPWR VPWR _00856_ sky130_fd_sc_hd__o221a_1
X_10713_ net157 _03997_ VGND VGND VPWR VPWR _03998_ sky130_fd_sc_hd__or2_1
XTAP_1877 VGND VPWR sky130_fd_sc_hd__tapvpwrvgnd_1
XFILLER_0_95_486 VGND VGND VPWR VPWR sky130_fd_sc_hd__fill_2
X_14481_ clknet_leaf_25_i_clk _00027_ VGND VGND VPWR VPWR net98 sky130_fd_sc_hd__dfxtp_1
XTAP_1888 VGND VPWR sky130_fd_sc_hd__tapvpwrvgnd_1
X_11693_ CORDIC_PE\[7\].genblk1.genblk1.cordic_engine_inst.out_x\[10\] _04841_ VGND
+ VGND VPWR VPWR _04842_ sky130_fd_sc_hd__xnor2_1
XTAP_1899 VGND VPWR sky130_fd_sc_hd__tapvpwrvgnd_1
XFILLER_0_153_503 VGND VGND VPWR VPWR sky130_fd_sc_hd__fill_1
XFILLER_0_125_205 VGND VGND VPWR VPWR sky130_fd_sc_hd__fill_2
X_13432_ _06069_ _06348_ VGND VGND VPWR VPWR _06349_ sky130_fd_sc_hd__and2_1
XFILLER_0_64_862 VGND VGND VPWR VPWR sky130_fd_sc_hd__fill_2
X_10644_ _03935_ _03936_ VGND VGND VPWR VPWR _03937_ sky130_fd_sc_hd__or2_1
XFILLER_0_82_169 VGND VGND VPWR VPWR sky130_fd_sc_hd__decap_4
XFILLER_0_125_238 VGND VGND VPWR VPWR sky130_fd_sc_hd__decap_6
XFILLER_0_153_547 VGND VGND VPWR VPWR sky130_ef_sc_hd__decap_12
XFILLER_0_36_586 VGND VGND VPWR VPWR sky130_fd_sc_hd__fill_2
X_10575_ _03860_ _03867_ _03865_ VGND VGND VPWR VPWR _03874_ sky130_fd_sc_hd__o21a_1
X_13363_ _06286_ _06287_ VGND VGND VPWR VPWR _06288_ sky130_fd_sc_hd__or2b_1
XFILLER_0_134_750 VGND VGND VPWR VPWR sky130_fd_sc_hd__decap_6
XFILLER_0_51_545 VGND VGND VPWR VPWR sky130_ef_sc_hd__decap_12
X_15102_ clknet_leaf_118_i_clk _00647_ VGND VGND VPWR VPWR CORDIC_PE\[8\].genblk1.genblk1.cordic_engine_inst.out_x\[16\]
+ sky130_fd_sc_hd__dfxtp_1
XFILLER_0_122_923 VGND VGND VPWR VPWR sky130_fd_sc_hd__fill_1
XFILLER_0_140_219 VGND VGND VPWR VPWR sky130_fd_sc_hd__decap_4
X_12314_ CORDIC_PE\[8\].genblk1.genblk1.cordic_engine_inst.out_y\[14\] _05384_ VGND
+ VGND VPWR VPWR _05385_ sky130_fd_sc_hd__xnor2_1
XFILLER_0_133_271 VGND VGND VPWR VPWR sky130_fd_sc_hd__decap_8
X_13294_ CORDIC_PE\[11\].genblk1.genblk1.cordic_engine_inst.out_alpha\[5\] _06218_
+ VGND VGND VPWR VPWR _06229_ sky130_fd_sc_hd__nand2_1
XFILLER_0_133_293 VGND VGND VPWR VPWR sky130_fd_sc_hd__decap_8
X_15033_ clknet_leaf_97_i_clk _00578_ VGND VGND VPWR VPWR CORDIC_PE\[7\].genblk1.genblk1.cordic_engine_inst.out_x\[4\]
+ sky130_fd_sc_hd__dfxtp_1
X_12245_ _05290_ _05324_ VGND VGND VPWR VPWR _05325_ sky130_fd_sc_hd__and2_1
XFILLER_0_121_477 VGND VGND VPWR VPWR sky130_ef_sc_hd__decap_12
X_12176_ _05262_ CORDIC_PE\[8\].genblk1.genblk1.cordic_engine_inst.out_y\[7\] VGND
+ VGND VPWR VPWR _05263_ sky130_fd_sc_hd__and2_4
X_11127_ _04349_ _04353_ _04357_ _04047_ VGND VGND VPWR VPWR _04359_ sky130_fd_sc_hd__a31o_1
Xclkbuf_leaf_120_i_clk clknet_4_1_0_i_clk VGND VGND VPWR VPWR clknet_leaf_120_i_clk
+ sky130_fd_sc_hd__clkbuf_16
X_11058_ _04295_ _04296_ VGND VGND VPWR VPWR _04297_ sky130_fd_sc_hd__nand2_1
XFILLER_0_3_39 VGND VGND VPWR VPWR sky130_ef_sc_hd__decap_12
X_10009_ _03364_ _03374_ _03377_ VGND VGND VPWR VPWR _03378_ sky130_fd_sc_hd__o21ai_1
X_14817_ clknet_leaf_74_i_clk _00362_ VGND VGND VPWR VPWR CORDIC_PE\[3\].genblk1.genblk1.cordic_engine_inst.out_x\[16\]
+ sky130_fd_sc_hd__dfxtp_2
XFILLER_0_149_809 VGND VGND VPWR VPWR sky130_ef_sc_hd__decap_12
XFILLER_0_87_932 VGND VGND VPWR VPWR sky130_fd_sc_hd__fill_2
XFILLER_0_147_3 VGND VGND VPWR VPWR sky130_ef_sc_hd__decap_12
XFILLER_0_47_807 VGND VGND VPWR VPWR sky130_fd_sc_hd__decap_3